Version 4
SHEET 1 3300 912
WIRE -32 48 -224 48
WIRE -32 80 -32 48
WIRE -32 96 -32 80
WIRE -224 176 -224 48
WIRE 304 192 64 192
WIRE -304 208 -816 208
WIRE -16 240 -144 240
WIRE 304 256 304 192
WIRE -304 272 -352 272
WIRE -816 320 -816 208
WIRE 304 352 304 336
WIRE 304 352 144 352
WIRE -352 368 -352 272
WIRE -224 368 -224 304
WIRE -224 368 -352 368
WIRE 144 368 144 352
WIRE -224 384 -224 368
WIRE -208 384 -224 384
WIRE -816 448 -816 400
WIRE 16 448 -176 448
WIRE 304 448 304 352
WIRE 16 480 16 448
WIRE 16 496 16 480
WIRE 384 512 384 416
WIRE 496 512 384 512
WIRE 640 512 560 512
WIRE 304 528 80 528
WIRE -176 576 -176 448
WIRE 80 592 80 528
WIRE -256 608 -816 608
WIRE 0 640 -96 640
WIRE 32 640 32 624
WIRE -816 672 -816 608
WIRE -256 672 -304 672
WIRE -304 768 -304 672
WIRE -176 768 -176 704
WIRE -176 768 -304 768
WIRE -176 784 -176 768
WIRE -160 784 -176 784
FLAG -816 448 0
FLAG 16 560 0
FLAG -160 784 0
FLAG -32 160 0
FLAG -208 384 0
FLAG -816 752 0
FLAG 64 288 0
FLAG 80 688 0
FLAG 144 448 0
FLAG 384 336 0
FLAG 640 592 0
SYMBOL voltage -816 304 R0
WINDOW 123 0 0 Left 0
WINDOW 39 0 0 Left 0
WINDOW 3 -187 212 Left 2
SYMATTR Value PULSE(0 3 0 0.5n 0.5n {0.5*PERIOD} {PERIOD})
SYMATTR InstName V1
SYMBOL voltage 16 464 R0
WINDOW 123 0 0 Left 0
WINDOW 39 0 0 Left 0
SYMATTR InstName V3
SYMATTR Value 9
SYMBOL ZZZ\\GATEDRV\\UCC27517 -192 640 R0
SYMATTR InstName U2
SYMBOL voltage 144 352 R0
WINDOW 123 0 0 Left 0
WINDOW 39 0 0 Left 0
SYMATTR InstName V2
SYMATTR Value 24
SYMBOL ZZZ\\GATEDRV\\UCC27517 -240 240 R0
SYMATTR InstName U1
SYMBOL voltage -816 656 R0
WINDOW 123 0 0 Left 0
WINDOW 39 0 0 Left 0
WINDOW 3 -187 212 Left 2
SYMATTR Value PULSE(0 3 50ns 0.5n 0.5n {0.5*PERIOD} {PERIOD})
SYMATTR InstName V4
SYMBOL ind2 288 240 R0
SYMATTR InstName L1
SYMATTR Value 28µH
SYMATTR Type ind
SYMBOL ind2 288 432 R0
SYMATTR InstName L2
SYMATTR Value 28µH
SYMATTR Type ind
SYMBOL ind2 368 320 R0
SYMATTR InstName L3
SYMATTR Value 343µH
SYMATTR Type ind
SYMBOL ZZZ\\MOS\\IRF\\NMOSFET\\irf510 32 240 R0
SYMATTR InstName U3
SYMBOL ZZZ\\MOS\\IRF\\NMOSFET\\irf510 48 640 R0
SYMATTR InstName U4
SYMBOL voltage -32 64 R0
WINDOW 123 0 0 Left 0
WINDOW 39 0 0 Left 0
SYMATTR InstName V5
SYMATTR Value 9
SYMBOL cap 560 496 R90
WINDOW 0 0 32 VBottom 2
WINDOW 3 32 32 VTop 2
SYMATTR InstName C2
SYMATTR Value 100n
SYMBOL res 624 496 R0
SYMATTR InstName R1
SYMATTR Value 50
TEXT -1336 392 Left 2 !.param FREQ=10E6\n.param PERIOD 1/{FREQ}
TEXT -1328 456 Left 2 !.tran 10usec
TEXT 376 704 Left 2 !.meas Pin AVG -V(vin)*I(V2)\n.meas Vmax MAX V(Vds)\n.meas Pout AVG V(Vout)*I(R2)\n.meas Ploss AVG V(Vds)*Id(M4)+V(Vgs)*Ig(M4)
TEXT -1136 696 Left 2 !.param Rl 100\n.param Cl 391p\n.param Ll 234n
TEXT 448 576 Left 2 !K L1 L2 L3 1
